artifacts/inputs/ExternalDSSfiles/IEEE_34_Bus_Mod1-G/Master.dss
Clear
New Circuit.ieee34-1


Redirect Vsource.dss
Redirect LineCode.dss
Redirect LoadShape.dss
Redirect GrowthShape.dss
Redirect TCC_Curve.dss
Redirect Spectrum.dss
Redirect m1\Branches.dss
Redirect m1\Transformers.dss
Redirect m1\Loads.dss
Redirect m1\Capacitors.dss
Redirect Transformer.dss
Redirect EnergyMeter.dss
MakeBusList
Redirect BusVoltageBases.dss  ! set voltage bases
Buscoords buscoords.dss
